RepresentativeLVNetworks-0.2.0/data/D/LineCodes.dss
New Linecode.185_SQ_MM_CU_3 units=km nphases=3 R1=0.119 R0=(4 0.12 *) X1=0.08 X0=(4 0.079 *) C1=0.0 C0=0.0 BaseFreq=50 
New Linecode.66_HDCU_(19/2.11)_3 units=km nphases=3 R1=0.302 R0=(4 0.302 *) X1=0.359 X0=(4 0.359 *) C1=0.0 C0=0.0 BaseFreq=50 
New Linecode.7/4.4_Al_3 units=km nphases=3 R1=0.258 R0=(4 0.258 *) X1=0.34 X0=(4 0.34 *) C1=0.0 C0=0.0 BaseFreq=50 
New Linecode.unknown_linecode_3 units=km nphases=3 R1=0.01 R0=0.04 X1=0.01 X0=0.04 C1=0.0 C0=0.0 BaseFreq=50 
